Circuit: * C:\Users\rishi\OneDrive - IIT Delhi (1)\Documents\LTspiceXVII\2023EE11143_Rishima_Assignment\common source amplifier.asc

Ignoring BSIM parameter XL
Ignoring BSIM parameter XW
Warning: Pd = 0 is less than W.
Warning: Ps = 0 is less than W.
Direct Newton iteration for .op point succeeded.

Date: Thu Apr 09 15:09:13 2026
Total elapsed time: 0.063 seconds.

tnom = 27
temp = 27
method = trap
totiter = 5
traniter = 0
tranpoints = 0
accept = 0
rejected = 0
matrix size = 7
fillins = 0
solver = Normal
Matrix Compiler1:      13 opcodes
Matrix Compiler2: 487 bytes object code size
