Circuit: * C:\Users\rishi\OneDrive - IIT Delhi (1)\Documents\LTspiceXVII\2023EE11143_Rishima_Assignment\Output rail to rail.asc

Ignoring BSIM parameter XL
Ignoring BSIM parameter XW
Ignoring BSIM parameter XL
Ignoring BSIM parameter XW
WARNING: Node N006 is floating.

WARNING: Less than two connections to node N006.  This node is used by M8.
Warning: Pd = 0 is less than W.
Warning: Ps = 0 is less than W.
Warning: Pd = 0 is less than W.
Warning: Ps = 0 is less than W.
Direct Newton iteration for .op point succeeded.

Date: Thu Apr 09 14:56:14 2026
Total elapsed time: 0.372 seconds.

tnom = 27
temp = 27
method = modified trap
totiter = 38020
traniter = 37977
tranpoints = 8308
accept = 5788
rejected = 2520
matrix size = 11
fillins = 0
solver = Normal
Matrix Compiler1: 602 bytes object code size  0.1/0.1/[0.0]
Matrix Compiler2: off  [0.1]/0.1/0.1

